data_image0
_cell_length_a       7.7726
_cell_length_b       7.7726
_cell_length_c       22.9328
_cell_angle_alpha    90
_cell_angle_beta     90
_cell_angle_gamma    120

_symmetry_space_group_name_H-M    "P 1"
_symmetry_int_tables_number       1

loop_
  _symmetry_equiv_pos_as_xyz
  'x, y, z'

loop_
  _atom_site_label
  _atom_site_occupancy
  _atom_site_fract_x
  _atom_site_fract_y
  _atom_site_fract_z
  _atom_site_thermal_displace_type
  _atom_site_B_iso_or_equiv
  _atom_site_type_symbol
  C1       1.0000 0.73791  0.24538  0.39869  Biso   1.000  C
  Ce1      1.0000 0.16667  0.33334  0.03459  Biso   1.000  Ce
  Ce2      1.0000 0.16666  0.83333  0.03459  Biso   1.000  Ce
  Ce3      1.0000 0.66667  0.33334  0.03459  Biso   1.000  Ce
  Ce4      1.0000 0.66666  0.83333  0.03459  Biso   1.000  Ce
  Ce5      1.0000 0.33223  0.16701  0.17074  Biso   1.000  Ce
  Ce6      1.0000 0.33529  0.66689  0.17199  Biso   1.000  Ce
  Ce7      1.0000 0.83141  0.16584  0.17435  Biso   1.000  Ce
  Ce8      1.0000 0.83380  0.66700  0.17471  Biso   1.000  Ce
  Ce9      1.0000 0.01174  0.01182  0.31233  Biso   1.000  Ce
  Ce10     1.0000 0.01903  0.51344  0.31493  Biso   1.000  Ce
  Ce11     1.0000 0.48027  0.99597  0.30786  Biso   1.000  Ce
  Ce12     1.0000 0.49028  0.48565  0.31005  Biso   1.000  Ce
  O1       1.0000 0.00000  0.00000  0.00000  Biso   1.000  O
  O2       1.0000 0.50000  0.00000  0.00000  Biso   1.000  O
  O3       1.0000 1.00000  0.50000  0.00000  Biso   1.000  O
  O4       1.0000 0.50000  0.50000  0.00000  Biso   1.000  O
  O5       1.0000 0.33334  0.16667  0.06918  Biso   1.000  O
  O6       1.0000 0.33333  0.66666  0.06918  Biso   1.000  O
  O7       1.0000 0.83334  0.16667  0.06918  Biso   1.000  O
  O8       1.0000 0.83333  0.66666  0.06918  Biso   1.000  O
  O9       1.0000 0.16667  0.33334  0.13837  Biso   1.000  O
  O10      1.0000 0.16666  0.83333  0.13837  Biso   1.000  O
  O11      1.0000 0.66667  0.33334  0.13837  Biso   1.000  O
  O12      1.0000 0.66666  0.83333  0.13837  Biso   1.000  O
  O13      1.0000 0.99925  0.00048  0.20762  Biso   1.000  O
  O14      1.0000 0.00588  0.50215  0.21129  Biso   1.000  O
  O15      1.0000 0.49524  0.99851  0.20464  Biso   1.000  O
  O16      1.0000 0.50023  0.49967  0.20525  Biso   1.000  O
  O17      1.0000 0.33868  0.16678  0.27492  Biso   1.000  O
  O18      1.0000 0.35681  0.68376  0.27827  Biso   1.000  O
  O19      1.0000 0.80870  0.15497  0.27846  Biso   1.000  O
  O20      1.0000 0.82940  0.66273  0.28177  Biso   1.000  O
  O21      1.0000 0.16357  0.34706  0.34268  Biso   1.000  O
  O22      1.0000 0.17711  0.83071  0.34673  Biso   1.000  O
  O23      1.0000 0.64352  0.31313  0.36269  Biso   1.000  O
  O24      1.0000 0.66098  0.05360  0.39894  Biso   1.000  O
  O25      1.0000 0.89709  0.37337  0.42158  Biso   1.000  O
