data_image0
_cell_length_a       7.774
_cell_length_b       7.774
_cell_length_c       25.994
_cell_angle_alpha    90
_cell_angle_beta     90
_cell_angle_gamma    90

_symmetry_space_group_name_H-M    "P 1"
_symmetry_int_tables_number       1

loop_
  _symmetry_equiv_pos_as_xyz
  'x, y, z'

loop_
  _atom_site_label
  _atom_site_occupancy
  _atom_site_fract_x
  _atom_site_fract_y
  _atom_site_fract_z
  _atom_site_thermal_displace_type
  _atom_site_B_iso_or_equiv
  _atom_site_type_symbol
  C1       1.0000 0.30492  0.77144  0.47209  Biso   1.000  C
  O1       1.0000 0.25000  0.00000  0.00000  Biso   1.000  O
  O2       1.0000 0.25000  0.50000  0.00000  Biso   1.000  O
  O3       1.0000 0.75000  0.00000  0.00000  Biso   1.000  O
  O4       1.0000 0.75000  0.50000  0.00000  Biso   1.000  O
  O5       1.0000 0.00000  0.25000  0.10574  Biso   1.000  O
  O6       1.0000 0.25000  0.00000  0.10574  Biso   1.000  O
  O7       1.0000 0.00000  0.75000  0.10574  Biso   1.000  O
  O8       1.0000 0.25000  0.50000  0.10574  Biso   1.000  O
  O9       1.0000 0.50000  0.25000  0.10574  Biso   1.000  O
  O10      1.0000 0.75000  0.00000  0.10574  Biso   1.000  O
  O11      1.0000 0.50000  0.75000  0.10574  Biso   1.000  O
  O12      1.0000 0.75000  0.50000  0.10574  Biso   1.000  O
  O13      1.0000 0.25000  0.00000  0.21147  Biso   1.000  O
  O14      1.0000 0.00000  0.25000  0.21147  Biso   1.000  O
  O15      1.0000 0.25000  0.50000  0.21147  Biso   1.000  O
  O16      1.0000 0.00000  0.75000  0.21147  Biso   1.000  O
  O17      1.0000 0.75000  0.00000  0.21147  Biso   1.000  O
  O18      1.0000 0.50000  0.25000  0.21147  Biso   1.000  O
  O19      1.0000 0.75000  0.50000  0.21147  Biso   1.000  O
  O20      1.0000 0.50000  0.75000  0.21147  Biso   1.000  O
  O21      1.0000 0.99685  0.24258  0.31962  Biso   1.000  O
  O22      1.0000 0.24837  0.00267  0.31167  Biso   1.000  O
  O23      1.0000 0.99407  0.75915  0.31890  Biso   1.000  O
  O24      1.0000 0.23496  0.49783  0.32314  Biso   1.000  O
  O25      1.0000 0.50196  0.24119  0.32636  Biso   1.000  O
  O26      1.0000 0.74931  0.00660  0.31189  Biso   1.000  O
  O27      1.0000 0.50276  0.76353  0.32428  Biso   1.000  O
  O28      1.0000 0.76131  0.49742  0.33124  Biso   1.000  O
  O29      1.0000 0.25152  0.99768  0.42272  Biso   1.000  O
  O30      1.0000 0.77068  0.03545  0.41759  Biso   1.000  O
  O31      1.0000 0.31367  0.81225  0.51479  Biso   1.000  O
  Ce1      1.0000 0.00000  0.00000  0.05287  Biso   1.000  Ce
  Ce2      1.0000 0.00000  0.50000  0.05287  Biso   1.000  Ce
  Ce3      1.0000 0.50000  0.00000  0.05287  Biso   1.000  Ce
  Ce4      1.0000 0.50000  0.50000  0.05287  Biso   1.000  Ce
  Ce5      1.0000 0.25000  0.25000  0.15860  Biso   1.000  Ce
  Ce6      1.0000 0.25000  0.75000  0.15860  Biso   1.000  Ce
  Ce7      1.0000 0.75000  0.25000  0.15860  Biso   1.000  Ce
  Ce8      1.0000 0.75000  0.75000  0.15860  Biso   1.000  Ce
  Ce9      1.0000 0.00052  0.99990  0.26128  Biso   1.000  Ce
  Ce10     1.0000 0.00430  0.50119  0.26590  Biso   1.000  Ce
  Ce11     1.0000 0.49822  0.99964  0.26153  Biso   1.000  Ce
  Ce12     1.0000 0.49839  0.50101  0.26779  Biso   1.000  Ce
  Ce13     1.0000 0.24612  0.22457  0.36973  Biso   1.000  Ce
  Ce14     1.0000 0.24686  0.76900  0.36765  Biso   1.000  Ce
  Ce15     1.0000 0.75361  0.23429  0.36507  Biso   1.000  Ce
  Ce16     1.0000 0.75156  0.78209  0.36883  Biso   1.000  Ce
