data_image0
_cell_length_a       7.7726
_cell_length_b       7.7726
_cell_length_c       22.9328
_cell_angle_alpha    90
_cell_angle_beta     90
_cell_angle_gamma    120

_symmetry_space_group_name_H-M    "P 1"
_symmetry_int_tables_number       1

loop_
  _symmetry_equiv_pos_as_xyz
  'x, y, z'

loop_
  _atom_site_label
  _atom_site_occupancy
  _atom_site_fract_x
  _atom_site_fract_y
  _atom_site_fract_z
  _atom_site_thermal_displace_type
  _atom_site_B_iso_or_equiv
  _atom_site_type_symbol
  C1       1.0000 0.48105  0.02190  0.43151  Biso   1.000  C
  O1       1.0000 0.00000  0.00000  0.00000  Biso   1.000  O
  O2       1.0000 0.50000  0.00000  0.00000  Biso   1.000  O
  O3       1.0000 1.00000  0.50000  0.00000  Biso   1.000  O
  O4       1.0000 0.50000  0.50000  0.00000  Biso   1.000  O
  O5       1.0000 0.33334  0.16667  0.06918  Biso   1.000  O
  O6       1.0000 0.33333  0.66666  0.06918  Biso   1.000  O
  O7       1.0000 0.83334  0.16667  0.06918  Biso   1.000  O
  O8       1.0000 0.83333  0.66666  0.06918  Biso   1.000  O
  O9       1.0000 0.16667  0.33334  0.13837  Biso   1.000  O
  O10      1.0000 0.16666  0.83333  0.13837  Biso   1.000  O
  O11      1.0000 0.66667  0.33334  0.13837  Biso   1.000  O
  O12      1.0000 0.66666  0.83333  0.13837  Biso   1.000  O
  O13      1.0000 0.99858  0.99706  0.20917  Biso   1.000  O
  O14      1.0000 0.99872  0.50175  0.20921  Biso   1.000  O
  O15      1.0000 0.50097  0.00044  0.20336  Biso   1.000  O
  O16      1.0000 0.50225  0.50096  0.20466  Biso   1.000  O
  O17      1.0000 0.34637  0.17291  0.27554  Biso   1.000  O
  O18      1.0000 0.34620  0.67378  0.27559  Biso   1.000  O
  O19      1.0000 0.82194  0.16134  0.28691  Biso   1.000  O
  O20      1.0000 0.81930  0.65969  0.29355  Biso   1.000  O
  O21      1.0000 0.18056  0.34025  0.35712  Biso   1.000  O
  O22      1.0000 0.18734  0.84435  0.35902  Biso   1.000  O
  O23      1.0000 0.43154  0.99658  0.47943  Biso   1.000  O
  Ce1      1.0000 0.16667  0.33334  0.03459  Biso   1.000  Ce
  Ce2      1.0000 0.16666  0.83333  0.03459  Biso   1.000  Ce
  Ce3      1.0000 0.66667  0.33334  0.03459  Biso   1.000  Ce
  Ce4      1.0000 0.66666  0.83333  0.03459  Biso   1.000  Ce
  Ce5      1.0000 0.33376  0.16673  0.17107  Biso   1.000  Ce
  Ce6      1.0000 0.33373  0.66713  0.17109  Biso   1.000  Ce
  Ce7      1.0000 0.83348  0.16686  0.17541  Biso   1.000  Ce
  Ce8      1.0000 0.83355  0.66683  0.17422  Biso   1.000  Ce
  Ce9      1.0000 0.02565  0.01375  0.31654  Biso   1.000  Ce
  Ce10     1.0000 0.02578  0.51231  0.31665  Biso   1.000  Ce
  Ce11     1.0000 0.48406  0.99220  0.30774  Biso   1.000  Ce
  Ce12     1.0000 0.48139  0.49044  0.30818  Biso   1.000  Ce
