data_image0
_cell_length_a       10.994
_cell_length_b       7.774
_cell_length_c       25
_cell_angle_alpha    90
_cell_angle_beta     90
_cell_angle_gamma    90

_symmetry_space_group_name_H-M    "P 1"
_symmetry_int_tables_number       1

loop_
  _symmetry_equiv_pos_as_xyz
  'x, y, z'

loop_
  _atom_site_label
  _atom_site_occupancy
  _atom_site_fract_x
  _atom_site_fract_y
  _atom_site_fract_z
  _atom_site_thermal_displace_type
  _atom_site_B_iso_or_equiv
  _atom_site_type_symbol
  C1       1.0000 0.26106  0.26560  0.29115  Biso   1.000  C
  O1       1.0000 0.12500  0.00000  0.00000  Biso   1.000  O
  O2       1.0000 0.11978  0.00094  0.16153  Biso   1.000  O
  O3       1.0000 0.37500  0.25000  0.07774  Biso   1.000  O
  O4       1.0000 0.37500  0.00000  0.00000  Biso   1.000  O
  O5       1.0000 0.37823  0.00161  0.15864  Biso   1.000  O
  O6       1.0000 0.12500  0.25000  0.07774  Biso   1.000  O
  O7       1.0000 0.16225  0.26565  0.26607  Biso   1.000  O
  O8       1.0000 0.12500  0.50000  0.00000  Biso   1.000  O
  O9       1.0000 0.11970  0.49981  0.16122  Biso   1.000  O
  O10      1.0000 0.37500  0.75000  0.07774  Biso   1.000  O
  O11      1.0000 0.37302  0.75008  0.23576  Biso   1.000  O
  O12      1.0000 0.37500  0.50000  0.00000  Biso   1.000  O
  O13      1.0000 0.37855  0.49829  0.15880  Biso   1.000  O
  O14      1.0000 0.12500  0.75000  0.07774  Biso   1.000  O
  O15      1.0000 0.11479  0.75005  0.23840  Biso   1.000  O
  O16      1.0000 0.62500  0.00000  0.00000  Biso   1.000  O
  O17      1.0000 0.62980  0.99819  0.15341  Biso   1.000  O
  O18      1.0000 0.87500  0.25000  0.07774  Biso   1.000  O
  O19      1.0000 0.91555  0.24980  0.23418  Biso   1.000  O
  O20      1.0000 0.87500  0.00000  0.00000  Biso   1.000  O
  O21      1.0000 0.87483  0.99726  0.15720  Biso   1.000  O
  O22      1.0000 0.62500  0.25000  0.07774  Biso   1.000  O
  O23      1.0000 0.62718  0.25009  0.23036  Biso   1.000  O
  O24      1.0000 0.62500  0.50000  0.00000  Biso   1.000  O
  O25      1.0000 0.62995  0.50186  0.15333  Biso   1.000  O
  O26      1.0000 0.87500  0.75000  0.07774  Biso   1.000  O
  O27      1.0000 0.87832  0.75006  0.23595  Biso   1.000  O
  O28      1.0000 0.87500  0.50000  0.00000  Biso   1.000  O
  O29      1.0000 0.87485  0.50267  0.15721  Biso   1.000  O
  O30      1.0000 0.62500  0.75000  0.07774  Biso   1.000  O
  O31      1.0000 0.63204  0.74993  0.23369  Biso   1.000  O
  O32      1.0000 0.36833  0.25026  0.27464  Biso   1.000  O
  Ce1      1.0000 0.99283  0.98197  0.22897  Biso   1.000  Ce
  Ce2      1.0000 0.25146  0.25025  0.15214  Biso   1.000  Ce
  Ce3      1.0000 0.25000  0.25000  0.00000  Biso   1.000  Ce
  Ce4      1.0000 0.00000  0.00000  0.07774  Biso   1.000  Ce
  Ce5      1.0000 0.99375  0.51719  0.22907  Biso   1.000  Ce
  Ce6      1.0000 0.25841  0.75019  0.16393  Biso   1.000  Ce
  Ce7      1.0000 0.25000  0.75000  0.00000  Biso   1.000  Ce
  Ce8      1.0000 0.00000  0.50000  0.07774  Biso   1.000  Ce
  Ce9      1.0000 0.51137  0.98775  0.23195  Biso   1.000  Ce
  Ce10     1.0000 0.74660  0.25000  0.15862  Biso   1.000  Ce
  Ce11     1.0000 0.75000  0.25000  0.00000  Biso   1.000  Ce
  Ce12     1.0000 0.50000  0.00000  0.07774  Biso   1.000  Ce
  Ce13     1.0000 0.51191  0.51226  0.23179  Biso   1.000  Ce
  Ce14     1.0000 0.74614  0.74984  0.15672  Biso   1.000  Ce
  Ce15     1.0000 0.75000  0.75000  0.00000  Biso   1.000  Ce
  Ce16     1.0000 0.50000  0.50000  0.07774  Biso   1.000  Ce
