data_image0
_cell_length_a       7.7726
_cell_length_b       7.7726
_cell_length_c       22.9328
_cell_angle_alpha    90
_cell_angle_beta     90
_cell_angle_gamma    120

_symmetry_space_group_name_H-M    "P 1"
_symmetry_int_tables_number       1

loop_
  _symmetry_equiv_pos_as_xyz
  'x, y, z'

loop_
  _atom_site_label
  _atom_site_occupancy
  _atom_site_fract_x
  _atom_site_fract_y
  _atom_site_fract_z
  _atom_site_thermal_displace_type
  _atom_site_B_iso_or_equiv
  _atom_site_type_symbol
  Ce1      1.0000 0.16667  0.33334  0.03459  Biso   1.000  Ce
  Ce2      1.0000 0.16666  0.83333  0.03459  Biso   1.000  Ce
  Ce3      1.0000 0.66667  0.33334  0.03459  Biso   1.000  Ce
  Ce4      1.0000 0.66666  0.83333  0.03459  Biso   1.000  Ce
  Ce5      1.0000 0.33445  0.16686  0.17016  Biso   1.000  Ce
  Ce6      1.0000 0.33267  0.66549  0.17518  Biso   1.000  Ce
  Ce7      1.0000 0.83234  0.16636  0.17427  Biso   1.000  Ce
  Ce8      1.0000 0.83294  0.66714  0.17238  Biso   1.000  Ce
  Ce9      1.0000 0.01755  0.00752  0.30804  Biso   1.000  Ce
  Ce10     1.0000 0.98502  0.50641  0.31968  Biso   1.000  Ce
  Ce11     1.0000 0.48477  0.00337  0.31311  Biso   1.000  Ce
  Ce12     1.0000 0.50137  0.48723  0.30845  Biso   1.000  Ce
  O1       1.0000 0.00000  0.00000  0.00000  Biso   1.000  O
  O2       1.0000 0.50000  0.00000  0.00000  Biso   1.000  O
  O3       1.0000 1.00000  0.50000  0.00000  Biso   1.000  O
  O4       1.0000 0.50000  0.50000  0.00000  Biso   1.000  O
  O5       1.0000 0.33334  0.16667  0.06918  Biso   1.000  O
  O6       1.0000 0.33333  0.66666  0.06918  Biso   1.000  O
  O7       1.0000 0.83334  0.16667  0.06918  Biso   1.000  O
  O8       1.0000 0.83333  0.66666  0.06918  Biso   1.000  O
  O9       1.0000 0.16667  0.33334  0.13837  Biso   1.000  O
  O10      1.0000 0.16666  0.83333  0.13837  Biso   1.000  O
  O11      1.0000 0.66667  0.33334  0.13837  Biso   1.000  O
  O12      1.0000 0.66666  0.83333  0.13837  Biso   1.000  O
  O13      1.0000 0.00136  0.00064  0.20564  Biso   1.000  O
  O14      1.0000 0.99255  0.49832  0.21058  Biso   1.000  O
  O15      1.0000 0.50074  0.00129  0.20777  Biso   1.000  O
  O16      1.0000 0.50278  0.49884  0.20457  Biso   1.000  O
  O17      1.0000 0.32607  0.17396  0.27275  Biso   1.000  O
  O18      1.0000 0.34606  0.65888  0.27961  Biso   1.000  O
  O19      1.0000 0.83483  0.14202  0.28556  Biso   1.000  O
  O20      1.0000 0.81569  0.68830  0.28067  Biso   1.000  O
  O21      1.0000 0.18484  0.32067  0.36504  Biso   1.000  O
  O22      1.0000 0.15244  0.85466  0.34634  Biso   1.000  O
  O23      1.0000 0.64910  0.33712  0.34554  Biso   1.000  O
  O24      1.0000 0.44554  0.59815  0.40079  Biso   1.000  O
  O25      1.0000 0.12862  0.52119  0.42286  Biso   1.000  O
  C1       1.0000 0.25395  0.48435  0.40049  Biso   1.000  C
