data_image0
_cell_length_a       7.7726
_cell_length_b       7.7726
_cell_length_c       22.9328
_cell_angle_alpha    90
_cell_angle_beta     90
_cell_angle_gamma    120

_symmetry_space_group_name_H-M    "P 1"
_symmetry_int_tables_number       1

loop_
  _symmetry_equiv_pos_as_xyz
  'x, y, z'

loop_
  _atom_site_label
  _atom_site_occupancy
  _atom_site_fract_x
  _atom_site_fract_y
  _atom_site_fract_z
  _atom_site_thermal_displace_type
  _atom_site_B_iso_or_equiv
  _atom_site_type_symbol
  Ce1      1.0000 0.16667  0.33334  0.03459  Biso   1.000  Ce
  Ce2      1.0000 0.16666  0.83333  0.03459  Biso   1.000  Ce
  Ce3      1.0000 0.66667  0.33334  0.03459  Biso   1.000  Ce
  Ce4      1.0000 0.66666  0.83333  0.03459  Biso   1.000  Ce
  Ce5      1.0000 0.33424  0.16581  0.16921  Biso   1.000  Ce
  Ce6      1.0000 0.33470  0.66752  0.17448  Biso   1.000  Ce
  Ce7      1.0000 0.83258  0.16541  0.17446  Biso   1.000  Ce
  Ce8      1.0000 0.83201  0.66797  0.17390  Biso   1.000  Ce
  Ce9      1.0000 0.02338  0.01243  0.30831  Biso   1.000  Ce
  Ce10     1.0000 0.99883  0.50128  0.31712  Biso   1.000  Ce
  Ce11     1.0000 0.48982  0.01049  0.31112  Biso   1.000  Ce
  Ce12     1.0000 0.48773  0.47683  0.30833  Biso   1.000  Ce
  O1       1.0000 0.00000  0.00000  0.00000  Biso   1.000  O
  O2       1.0000 0.50000  0.00000  0.00000  Biso   1.000  O
  O3       1.0000 1.00000  0.50000  0.00000  Biso   1.000  O
  O4       1.0000 0.50000  0.50000  0.00000  Biso   1.000  O
  O5       1.0000 0.33334  0.16667  0.06918  Biso   1.000  O
  O6       1.0000 0.33333  0.66666  0.06918  Biso   1.000  O
  O7       1.0000 0.83334  0.16667  0.06918  Biso   1.000  O
  O8       1.0000 0.83333  0.66666  0.06918  Biso   1.000  O
  O9       1.0000 0.16667  0.33334  0.13837  Biso   1.000  O
  O10      1.0000 0.16666  0.83333  0.13837  Biso   1.000  O
  O11      1.0000 0.66667  0.33334  0.13837  Biso   1.000  O
  O12      1.0000 0.66666  0.83333  0.13837  Biso   1.000  O
  O13      1.0000 0.00259  0.00105  0.20558  Biso   1.000  O
  O14      1.0000 0.99820  0.50218  0.21168  Biso   1.000  O
  O15      1.0000 0.50043  0.99982  0.20534  Biso   1.000  O
  O16      1.0000 0.49895  0.49737  0.20556  Biso   1.000  O
  O17      1.0000 0.33252  0.16745  0.27100  Biso   1.000  O
  O18      1.0000 0.35947  0.67160  0.28212  Biso   1.000  O
  O19      1.0000 0.82881  0.14115  0.28214  Biso   1.000  O
  O20      1.0000 0.81065  0.68939  0.28090  Biso   1.000  O
  O21      1.0000 0.17966  0.32064  0.34981  Biso   1.000  O
  O22      1.0000 0.15587  0.84712  0.34914  Biso   1.000  O
  O23      1.0000 0.65313  0.34457  0.34919  Biso   1.000  O
