data_image0
_cell_length_a       7.774
_cell_length_b       7.774
_cell_length_c       25.994
_cell_angle_alpha    90
_cell_angle_beta     90
_cell_angle_gamma    90

_symmetry_space_group_name_H-M    "P 1"
_symmetry_int_tables_number       1

loop_
  _symmetry_equiv_pos_as_xyz
  'x, y, z'

loop_
  _atom_site_label
  _atom_site_occupancy
  _atom_site_fract_x
  _atom_site_fract_y
  _atom_site_fract_z
  _atom_site_thermal_displace_type
  _atom_site_B_iso_or_equiv
  _atom_site_type_symbol
  C1       1.0000 0.49981  0.56283  0.41983  Biso   1.000  C
  O1       1.0000 0.25000  0.00000  0.00000  Biso   1.000  O
  O2       1.0000 0.25000  0.50000  0.00000  Biso   1.000  O
  O3       1.0000 0.75000  0.00000  0.00000  Biso   1.000  O
  O4       1.0000 0.75000  0.50000  0.00000  Biso   1.000  O
  O5       1.0000 0.00000  0.25000  0.10574  Biso   1.000  O
  O6       1.0000 0.25000  0.00000  0.10574  Biso   1.000  O
  O7       1.0000 0.00000  0.75000  0.10574  Biso   1.000  O
  O8       1.0000 0.25000  0.50000  0.10574  Biso   1.000  O
  O9       1.0000 0.50000  0.25000  0.10574  Biso   1.000  O
  O10      1.0000 0.75000  0.00000  0.10574  Biso   1.000  O
  O11      1.0000 0.50000  0.75000  0.10574  Biso   1.000  O
  O12      1.0000 0.75000  0.50000  0.10574  Biso   1.000  O
  O13      1.0000 0.25000  0.00000  0.21147  Biso   1.000  O
  O14      1.0000 0.00000  0.25000  0.21147  Biso   1.000  O
  O15      1.0000 0.25000  0.50000  0.21147  Biso   1.000  O
  O16      1.0000 0.00000  0.75000  0.21147  Biso   1.000  O
  O17      1.0000 0.75000  0.00000  0.21147  Biso   1.000  O
  O18      1.0000 0.50000  0.25000  0.21147  Biso   1.000  O
  O19      1.0000 0.75000  0.50000  0.21147  Biso   1.000  O
  O20      1.0000 0.50000  0.75000  0.21147  Biso   1.000  O
  O21      1.0000 1.00000  0.24804  0.32575  Biso   1.000  O
  O22      1.0000 0.24917  0.00308  0.31198  Biso   1.000  O
  O23      1.0000 0.99993  0.74452  0.32255  Biso   1.000  O
  O24      1.0000 0.25133  0.48840  0.31650  Biso   1.000  O
  O25      1.0000 0.49999  0.24193  0.32243  Biso   1.000  O
  O26      1.0000 0.75082  0.00310  0.31197  Biso   1.000  O
  O27      1.0000 0.50001  0.75497  0.31712  Biso   1.000  O
  O28      1.0000 0.74870  0.48830  0.31646  Biso   1.000  O
  O29      1.0000 0.24967  0.02535  0.41568  Biso   1.000  O
  O30      1.0000 0.35525  0.47866  0.42376  Biso   1.000  O
  O31      1.0000 0.75034  0.02536  0.41566  Biso   1.000  O
  O32      1.0000 0.64477  0.47934  0.42367  Biso   1.000  O
  Ce1      1.0000 0.00000  0.00000  0.05287  Biso   1.000  Ce
  Ce2      1.0000 0.00000  0.50000  0.05287  Biso   1.000  Ce
  Ce3      1.0000 0.50000  0.00000  0.05287  Biso   1.000  Ce
  Ce4      1.0000 0.50000  0.50000  0.05287  Biso   1.000  Ce
  Ce5      1.0000 0.25000  0.25000  0.15860  Biso   1.000  Ce
  Ce6      1.0000 0.25000  0.75000  0.15860  Biso   1.000  Ce
  Ce7      1.0000 0.75000  0.25000  0.15860  Biso   1.000  Ce
  Ce8      1.0000 0.75000  0.75000  0.15860  Biso   1.000  Ce
  Ce9      1.0000 0.99999  0.99628  0.26399  Biso   1.000  Ce
  Ce10     1.0000 0.00000  0.50054  0.26660  Biso   1.000  Ce
  Ce11     1.0000 0.49998  0.99791  0.26251  Biso   1.000  Ce
  Ce12     1.0000 0.49999  0.49994  0.26508  Biso   1.000  Ce
  Ce13     1.0000 0.25416  0.23440  0.36838  Biso   1.000  Ce
  Ce14     1.0000 0.26028  0.76318  0.37108  Biso   1.000  Ce
  Ce15     1.0000 0.74583  0.23442  0.36836  Biso   1.000  Ce
  Ce16     1.0000 0.73962  0.76315  0.37107  Biso   1.000  Ce
