data_image0
_cell_length_a       10.994
_cell_length_b       7.774
_cell_length_c       25
_cell_angle_alpha    90
_cell_angle_beta     90
_cell_angle_gamma    90

_symmetry_space_group_name_H-M    "P 1"
_symmetry_int_tables_number       1

loop_
  _symmetry_equiv_pos_as_xyz
  'x, y, z'

loop_
  _atom_site_label
  _atom_site_occupancy
  _atom_site_fract_x
  _atom_site_fract_y
  _atom_site_fract_z
  _atom_site_thermal_displace_type
  _atom_site_B_iso_or_equiv
  _atom_site_type_symbol
  C1       1.0000 0.23148  0.30079  0.27259  Biso   1.000  C
  O1       1.0000 0.12500  0.00000  0.00000  Biso   1.000  O
  O2       1.0000 0.11748  0.99701  0.15581  Biso   1.000  O
  O3       1.0000 0.37500  0.25000  0.07774  Biso   1.000  O
  O4       1.0000 0.37500  0.00000  0.00000  Biso   1.000  O
  O5       1.0000 0.37768  0.99699  0.15832  Biso   1.000  O
  O6       1.0000 0.12500  0.25000  0.07774  Biso   1.000  O
  O7       1.0000 0.17762  0.16517  0.25126  Biso   1.000  O
  O8       1.0000 0.12500  0.50000  0.00000  Biso   1.000  O
  O9       1.0000 0.11953  0.49793  0.16096  Biso   1.000  O
  O10      1.0000 0.37500  0.75000  0.07774  Biso   1.000  O
  O11      1.0000 0.37781  0.73823  0.23425  Biso   1.000  O
  O12      1.0000 0.37500  0.50000  0.00000  Biso   1.000  O
  O13      1.0000 0.37943  0.49844  0.15775  Biso   1.000  O
  O14      1.0000 0.12500  0.75000  0.07774  Biso   1.000  O
  O15      1.0000 0.11677  0.75707  0.23255  Biso   1.000  O
  O16      1.0000 0.62500  0.00000  0.00000  Biso   1.000  O
  O17      1.0000 0.62858  0.00175  0.15658  Biso   1.000  O
  O18      1.0000 0.87500  0.25000  0.07774  Biso   1.000  O
  O19      1.0000 0.91019  0.25334  0.23277  Biso   1.000  O
  O20      1.0000 0.87500  0.00000  0.00000  Biso   1.000  O
  O21      1.0000 0.87219  0.00023  0.15712  Biso   1.000  O
  O22      1.0000 0.62500  0.25000  0.07774  Biso   1.000  O
  O23      1.0000 0.61046  0.26730  0.23135  Biso   1.000  O
  O24      1.0000 0.62500  0.50000  0.00000  Biso   1.000  O
  O25      1.0000 0.62691  0.50521  0.15440  Biso   1.000  O
  O26      1.0000 0.87500  0.75000  0.07774  Biso   1.000  O
  O27      1.0000 0.87943  0.75214  0.23646  Biso   1.000  O
  O28      1.0000 0.87500  0.50000  0.00000  Biso   1.000  O
  O29      1.0000 0.87217  0.50350  0.15732  Biso   1.000  O
  O30      1.0000 0.62500  0.75000  0.07774  Biso   1.000  O
  O31      1.0000 0.62412  0.74404  0.23489  Biso   1.000  O
  O32      1.0000 0.35062  0.30495  0.26761  Biso   1.000  O
  O33      1.0000 0.16889  0.42240  0.29276  Biso   1.000  O
  Ce1      1.0000 0.99834  0.98916  0.22801  Biso   1.000  Ce
  Ce2      1.0000 0.25014  0.24553  0.15314  Biso   1.000  Ce
  Ce3      1.0000 0.25000  0.25000  0.00000  Biso   1.000  Ce
  Ce4      1.0000 0.00000  0.00000  0.07774  Biso   1.000  Ce
  Ce5      1.0000 0.99723  0.51985  0.23128  Biso   1.000  Ce
  Ce6      1.0000 0.25286  0.74927  0.16045  Biso   1.000  Ce
  Ce7      1.0000 0.25000  0.75000  0.00000  Biso   1.000  Ce
  Ce8      1.0000 0.00000  0.50000  0.07774  Biso   1.000  Ce
  Ce9      1.0000 0.50343  0.99143  0.23276  Biso   1.000  Ce
  Ce10     1.0000 0.74794  0.25332  0.15921  Biso   1.000  Ce
  Ce11     1.0000 0.75000  0.25000  0.00000  Biso   1.000  Ce
  Ce12     1.0000 0.50000  0.00000  0.07774  Biso   1.000  Ce
  Ce13     1.0000 0.50382  0.51658  0.22927  Biso   1.000  Ce
  Ce14     1.0000 0.74794  0.75206  0.15813  Biso   1.000  Ce
  Ce15     1.0000 0.75000  0.75000  0.00000  Biso   1.000  Ce
  Ce16     1.0000 0.50000  0.50000  0.07774  Biso   1.000  Ce
