data_image0
_cell_length_a       7.7726
_cell_length_b       7.7726
_cell_length_c       22.9328
_cell_angle_alpha    90
_cell_angle_beta     90
_cell_angle_gamma    120

_symmetry_space_group_name_H-M    "P 1"
_symmetry_int_tables_number       1

loop_
  _symmetry_equiv_pos_as_xyz
  'x, y, z'

loop_
  _atom_site_label
  _atom_site_occupancy
  _atom_site_fract_x
  _atom_site_fract_y
  _atom_site_fract_z
  _atom_site_thermal_displace_type
  _atom_site_B_iso_or_equiv
  _atom_site_type_symbol
  C1       1.0000 0.68780  0.20830  0.41670  Biso   1.000  C
  O1       1.0000 0.00000  0.00000  0.00000  Biso   1.000  O
  O2       1.0000 0.50000  0.00000  0.00000  Biso   1.000  O
  O3       1.0000 1.00000  0.50000  0.00000  Biso   1.000  O
  O4       1.0000 0.50000  0.50000  0.00000  Biso   1.000  O
  O5       1.0000 0.33334  0.16667  0.06918  Biso   1.000  O
  O6       1.0000 0.33333  0.66666  0.06918  Biso   1.000  O
  O7       1.0000 0.83334  0.16667  0.06918  Biso   1.000  O
  O8       1.0000 0.83333  0.66666  0.06918  Biso   1.000  O
  O9       1.0000 0.16667  0.33334  0.13837  Biso   1.000  O
  O10      1.0000 0.16666  0.83333  0.13837  Biso   1.000  O
  O11      1.0000 0.66667  0.33334  0.13837  Biso   1.000  O
  O12      1.0000 0.66666  0.83333  0.13837  Biso   1.000  O
  O13      1.0000 0.00222  0.00407  0.20813  Biso   1.000  O
  O14      1.0000 0.00398  0.50001  0.20951  Biso   1.000  O
  O15      1.0000 0.49639  0.99854  0.20462  Biso   1.000  O
  O16      1.0000 0.49979  0.49957  0.20511  Biso   1.000  O
  O17      1.0000 0.35136  0.17368  0.27560  Biso   1.000  O
  O18      1.0000 0.36230  0.68358  0.27798  Biso   1.000  O
  O19      1.0000 0.80385  0.14941  0.28237  Biso   1.000  O
  O20      1.0000 0.82460  0.66738  0.28362  Biso   1.000  O
  O21      1.0000 0.17248  0.33769  0.35077  Biso   1.000  O
  O22      1.0000 0.19781  0.85168  0.34962  Biso   1.000  O
  O23      1.0000 0.67116  0.32512  0.38087  Biso   1.000  O
  O24      1.0000 0.65725  0.03705  0.40953  Biso   1.000  O
  Ce1      1.0000 0.16667  0.33334  0.03459  Biso   1.000  Ce
  Ce2      1.0000 0.16666  0.83333  0.03459  Biso   1.000  Ce
  Ce3      1.0000 0.66667  0.33334  0.03459  Biso   1.000  Ce
  Ce4      1.0000 0.66666  0.83333  0.03459  Biso   1.000  Ce
  Ce5      1.0000 0.33360  0.16834  0.17060  Biso   1.000  Ce
  Ce6      1.0000 0.33462  0.66583  0.17151  Biso   1.000  Ce
  Ce7      1.0000 0.83235  0.16639  0.17399  Biso   1.000  Ce
  Ce8      1.0000 0.83335  0.66747  0.17567  Biso   1.000  Ce
  Ce9      1.0000 0.02193  0.01528  0.31347  Biso   1.000  Ce
  Ce10     1.0000 0.02152  0.51151  0.31476  Biso   1.000  Ce
  Ce11     1.0000 0.48302  0.99382  0.30632  Biso   1.000  Ce
  Ce12     1.0000 0.48988  0.48900  0.31135  Biso   1.000  Ce
