data_image0
_cell_length_a       7.774
_cell_length_b       7.774
_cell_length_c       25.994
_cell_angle_alpha    90
_cell_angle_beta     90
_cell_angle_gamma    90

_symmetry_space_group_name_H-M    "P 1"
_symmetry_int_tables_number       1

loop_
  _symmetry_equiv_pos_as_xyz
  'x, y, z'

loop_
  _atom_site_label
  _atom_site_occupancy
  _atom_site_fract_x
  _atom_site_fract_y
  _atom_site_fract_z
  _atom_site_thermal_displace_type
  _atom_site_B_iso_or_equiv
  _atom_site_type_symbol
  C1       1.0000 0.49930  0.54252  0.43016  Biso   1.000  C
  Ce1      1.0000 0.00000  0.00000  0.05287  Biso   1.000  Ce
  Ce2      1.0000 0.00000  0.50000  0.05287  Biso   1.000  Ce
  Ce3      1.0000 0.50000  0.00000  0.05287  Biso   1.000  Ce
  Ce4      1.0000 0.50000  0.50000  0.05287  Biso   1.000  Ce
  Ce5      1.0000 0.25000  0.25000  0.15860  Biso   1.000  Ce
  Ce6      1.0000 0.25000  0.75000  0.15860  Biso   1.000  Ce
  Ce7      1.0000 0.75000  0.25000  0.15860  Biso   1.000  Ce
  Ce8      1.0000 0.75000  0.75000  0.15860  Biso   1.000  Ce
  Ce9      1.0000 0.99997  0.99716  0.26370  Biso   1.000  Ce
  Ce10     1.0000 0.99988  0.50160  0.26628  Biso   1.000  Ce
  Ce11     1.0000 0.50026  0.99815  0.26258  Biso   1.000  Ce
  Ce12     1.0000 0.50006  0.50049  0.26548  Biso   1.000  Ce
  Ce13     1.0000 0.25216  0.23748  0.36765  Biso   1.000  Ce
  Ce14     1.0000 0.25541  0.76959  0.37100  Biso   1.000  Ce
  Ce15     1.0000 0.74725  0.23734  0.36780  Biso   1.000  Ce
  Ce16     1.0000 0.74360  0.76965  0.37139  Biso   1.000  Ce
  O1       1.0000 0.25000  0.00000  0.00000  Biso   1.000  O
  O2       1.0000 0.25000  0.50000  0.00000  Biso   1.000  O
  O3       1.0000 0.75000  0.00000  0.00000  Biso   1.000  O
  O4       1.0000 0.75000  0.50000  0.00000  Biso   1.000  O
  O5       1.0000 0.00000  0.25000  0.10574  Biso   1.000  O
  O6       1.0000 0.25000  0.00000  0.10574  Biso   1.000  O
  O7       1.0000 0.00000  0.75000  0.10574  Biso   1.000  O
  O8       1.0000 0.25000  0.50000  0.10574  Biso   1.000  O
  O9       1.0000 0.50000  0.25000  0.10574  Biso   1.000  O
  O10      1.0000 0.75000  0.00000  0.10574  Biso   1.000  O
  O11      1.0000 0.50000  0.75000  0.10574  Biso   1.000  O
  O12      1.0000 0.75000  0.50000  0.10574  Biso   1.000  O
  O13      1.0000 0.25000  0.00000  0.21147  Biso   1.000  O
  O14      1.0000 0.00000  0.25000  0.21147  Biso   1.000  O
  O15      1.0000 0.25000  0.50000  0.21147  Biso   1.000  O
  O16      1.0000 0.00000  0.75000  0.21147  Biso   1.000  O
  O17      1.0000 0.75000  0.00000  0.21147  Biso   1.000  O
  O18      1.0000 0.50000  0.25000  0.21147  Biso   1.000  O
  O19      1.0000 0.75000  0.50000  0.21147  Biso   1.000  O
  O20      1.0000 0.50000  0.75000  0.21147  Biso   1.000  O
  O21      1.0000 0.00028  0.24928  0.32419  Biso   1.000  O
  O22      1.0000 0.25119  0.00314  0.31170  Biso   1.000  O
  O23      1.0000 0.99961  0.74979  0.32095  Biso   1.000  O
  O24      1.0000 0.24992  0.49170  0.31694  Biso   1.000  O
  O25      1.0000 0.49984  0.24467  0.32161  Biso   1.000  O
  O26      1.0000 0.74964  0.00385  0.31191  Biso   1.000  O
  O27      1.0000 0.50036  0.75237  0.31884  Biso   1.000  O
  O28      1.0000 0.75034  0.49097  0.31722  Biso   1.000  O
  O29      1.0000 0.23017  0.03105  0.41478  Biso   1.000  O
  O30      1.0000 0.35270  0.46309  0.42611  Biso   1.000  O
  O31      1.0000 0.75835  0.03132  0.41531  Biso   1.000  O
  O32      1.0000 0.64591  0.46316  0.42605  Biso   1.000  O
  O33      1.0000 0.49918  0.70920  0.43406  Biso   1.000  O
