data_image0
_cell_length_a       7.774
_cell_length_b       7.774
_cell_length_c       25.994
_cell_angle_alpha    90
_cell_angle_beta     90
_cell_angle_gamma    90

_symmetry_space_group_name_H-M    "P 1"
_symmetry_int_tables_number       1

loop_
  _symmetry_equiv_pos_as_xyz
  'x, y, z'

loop_
  _atom_site_label
  _atom_site_occupancy
  _atom_site_fract_x
  _atom_site_fract_y
  _atom_site_fract_z
  _atom_site_thermal_displace_type
  _atom_site_B_iso_or_equiv
  _atom_site_type_symbol
  Ce1      1.0000 0.00000  0.00000  0.05287  Biso   1.000  Ce
  Ce2      1.0000 0.00000  0.50000  0.05287  Biso   1.000  Ce
  Ce3      1.0000 0.50000  0.00000  0.05287  Biso   1.000  Ce
  Ce4      1.0000 0.50000  0.50000  0.05287  Biso   1.000  Ce
  Ce5      1.0000 0.25000  0.25000  0.15860  Biso   1.000  Ce
  Ce6      1.0000 0.25000  0.75000  0.15860  Biso   1.000  Ce
  Ce7      1.0000 0.75000  0.25000  0.15860  Biso   1.000  Ce
  Ce8      1.0000 0.75000  0.75000  0.15860  Biso   1.000  Ce
  Ce9      1.0000 0.00240  0.00000  0.26341  Biso   1.000  Ce
  Ce10     1.0000 0.99807  0.50000  0.26565  Biso   1.000  Ce
  Ce11     1.0000 0.49760  0.00000  0.26341  Biso   1.000  Ce
  Ce12     1.0000 0.50193  0.50000  0.26565  Biso   1.000  Ce
  Ce13     1.0000 0.25000  0.24763  0.36927  Biso   1.000  Ce
  Ce14     1.0000 0.25000  0.75237  0.36927  Biso   1.000  Ce
  Ce15     1.0000 0.75000  0.22808  0.37028  Biso   1.000  Ce
  Ce16     1.0000 0.75000  0.77192  0.37028  Biso   1.000  Ce
  O1       1.0000 0.25000  0.00000  0.00000  Biso   1.000  O
  O2       1.0000 0.25000  0.50000  0.00000  Biso   1.000  O
  O3       1.0000 0.75000  0.00000  0.00000  Biso   1.000  O
  O4       1.0000 0.75000  0.50000  0.00000  Biso   1.000  O
  O5       1.0000 0.00000  0.25000  0.10574  Biso   1.000  O
  O6       1.0000 0.25000  0.00000  0.10574  Biso   1.000  O
  O7       1.0000 0.00000  0.75000  0.10574  Biso   1.000  O
  O8       1.0000 0.25000  0.50000  0.10574  Biso   1.000  O
  O9       1.0000 0.50000  0.25000  0.10574  Biso   1.000  O
  O10      1.0000 0.75000  0.00000  0.10574  Biso   1.000  O
  O11      1.0000 0.50000  0.75000  0.10574  Biso   1.000  O
  O12      1.0000 0.75000  0.50000  0.10574  Biso   1.000  O
  O13      1.0000 0.25000  0.00000  0.21147  Biso   1.000  O
  O14      1.0000 0.00000  0.25000  0.21147  Biso   1.000  O
  O15      1.0000 0.25000  0.50000  0.21147  Biso   1.000  O
  O16      1.0000 0.00000  0.75000  0.21147  Biso   1.000  O
  O17      1.0000 0.75000  0.00000  0.21147  Biso   1.000  O
  O18      1.0000 0.50000  0.25000  0.21147  Biso   1.000  O
  O19      1.0000 0.75000  0.50000  0.21147  Biso   1.000  O
  O20      1.0000 0.50000  0.75000  0.21147  Biso   1.000  O
  O21      1.0000 0.00596  0.24785  0.32330  Biso   1.000  O
  O22      1.0000 0.25000  0.00000  0.31099  Biso   1.000  O
  O23      1.0000 0.00596  0.75215  0.32330  Biso   1.000  O
  O24      1.0000 0.25000  0.50000  0.31133  Biso   1.000  O
  O25      1.0000 0.49404  0.24785  0.32330  Biso   1.000  O
  O26      1.0000 0.75000  0.00000  0.31234  Biso   1.000  O
  O27      1.0000 0.49404  0.75215  0.32330  Biso   1.000  O
  O28      1.0000 0.75000  0.50000  0.31799  Biso   1.000  O
  O29      1.0000 0.25000  0.00000  0.41110  Biso   1.000  O
  O30      1.0000 0.25000  0.50000  0.41166  Biso   1.000  O
  O31      1.0000 0.75000  0.00000  0.41955  Biso   1.000  O
