data_image0
_cell_length_a       10.994
_cell_length_b       7.774
_cell_length_c       25
_cell_angle_alpha    90
_cell_angle_beta     90
_cell_angle_gamma    90

_symmetry_space_group_name_H-M    "P 1"
_symmetry_int_tables_number       1

loop_
  _symmetry_equiv_pos_as_xyz
  'x, y, z'

loop_
  _atom_site_label
  _atom_site_occupancy
  _atom_site_fract_x
  _atom_site_fract_y
  _atom_site_fract_z
  _atom_site_thermal_displace_type
  _atom_site_B_iso_or_equiv
  _atom_site_type_symbol
  C1       1.0000 0.21762  0.23886  0.27438  Biso   1.000  C
  Ce1      1.0000 0.98362  0.98522  0.23153  Biso   1.000  Ce
  Ce2      1.0000 0.25297  0.25079  0.15450  Biso   1.000  Ce
  Ce3      1.0000 0.25000  0.25000  0.00000  Biso   1.000  Ce
  Ce4      1.0000 0.00000  0.00000  0.07774  Biso   1.000  Ce
  Ce5      1.0000 0.98360  0.51539  0.23101  Biso   1.000  Ce
  Ce6      1.0000 0.23699  0.75249  0.16200  Biso   1.000  Ce
  Ce7      1.0000 0.25000  0.75000  0.00000  Biso   1.000  Ce
  Ce8      1.0000 0.00000  0.50000  0.07774  Biso   1.000  Ce
  Ce9      1.0000 0.48767  0.98401  0.23289  Biso   1.000  Ce
  Ce10     1.0000 0.75898  0.24830  0.15380  Biso   1.000  Ce
  Ce11     1.0000 0.75000  0.25000  0.00000  Biso   1.000  Ce
  Ce12     1.0000 0.50000  0.00000  0.07774  Biso   1.000  Ce
  Ce13     1.0000 0.48647  0.52534  0.22926  Biso   1.000  Ce
  Ce14     1.0000 0.74504  0.75060  0.15922  Biso   1.000  Ce
  Ce15     1.0000 0.75000  0.75000  0.00000  Biso   1.000  Ce
  Ce16     1.0000 0.50000  0.50000  0.07774  Biso   1.000  Ce
  O1       1.0000 0.12500  0.00000  0.00000  Biso   1.000  O
  O2       1.0000 0.11671  0.00750  0.15956  Biso   1.000  O
  O3       1.0000 0.37500  0.25000  0.07774  Biso   1.000  O
  O4       1.0000 0.37500  0.00000  0.00000  Biso   1.000  O
  O5       1.0000 0.37289  0.98887  0.15757  Biso   1.000  O
  O6       1.0000 0.12500  0.25000  0.07774  Biso   1.000  O
  O7       1.0000 0.22065  0.21401  0.32029  Biso   1.000  O
  O8       1.0000 0.12500  0.50000  0.00000  Biso   1.000  O
  O9       1.0000 0.11715  0.49523  0.15900  Biso   1.000  O
  O10      1.0000 0.37500  0.75000  0.07774  Biso   1.000  O
  O11      1.0000 0.36712  0.74260  0.24027  Biso   1.000  O
  O12      1.0000 0.37500  0.50000  0.00000  Biso   1.000  O
  O13      1.0000 0.37440  0.51455  0.15666  Biso   1.000  O
  O14      1.0000 0.12500  0.75000  0.07774  Biso   1.000  O
  O15      1.0000 0.11624  0.75052  0.23497  Biso   1.000  O
  O16      1.0000 0.62500  0.00000  0.00000  Biso   1.000  O
  O17      1.0000 0.62416  0.01868  0.16210  Biso   1.000  O
  O18      1.0000 0.87500  0.25000  0.07774  Biso   1.000  O
  O19      1.0000 0.86656  0.25002  0.23247  Biso   1.000  O
  O20      1.0000 0.87500  0.00000  0.00000  Biso   1.000  O
  O21      1.0000 0.86845  0.99368  0.15314  Biso   1.000  O
  O22      1.0000 0.62500  0.25000  0.07774  Biso   1.000  O
  O23      1.0000 0.40150  0.26824  0.24690  Biso   1.000  O
  O24      1.0000 0.62500  0.50000  0.00000  Biso   1.000  O
  O25      1.0000 0.61964  0.47684  0.16178  Biso   1.000  O
  O26      1.0000 0.87500  0.75000  0.07774  Biso   1.000  O
  O27      1.0000 0.86070  0.75046  0.23469  Biso   1.000  O
  O28      1.0000 0.87500  0.50000  0.00000  Biso   1.000  O
  O29      1.0000 0.86672  0.50598  0.15310  Biso   1.000  O
  O30      1.0000 0.62500  0.75000  0.07774  Biso   1.000  O
  O31      1.0000 0.61294  0.73957  0.23330  Biso   1.000  O
